CRYSTAL
PRIMVEC
  7.226021   0.000000   0.000000
  0.000000   5.495611   0.000000
  0.000000   0.000000  16.486833
PRIMCOORD
26 1
 8   4.945272   2.636629   5.360199
 8   3.064049   3.966842   5.360199
 6   3.613010   2.747806   4.877794
 1   3.018092   1.906427   5.236053
 1   5.283594   1.787283   5.005897
 1   2.150608   4.002673   5.005897
78   0.000000   0.000000  -2.747696
78   0.000000   2.747806  -2.747696
78   3.613010   0.000000  -2.747696
78   3.613010   2.747806  -2.747696
78   1.806505   1.373903  -1.373848
78   1.806505   4.121708  -1.373848
78   5.419515   1.373903  -1.373848
78   5.419515   4.121708  -1.373848
78   0.000000   0.000000   0.000000
78   0.000000   2.747806   0.000000
78   3.613010   0.000000   0.000000
78   3.613010   2.747806   0.000000
78   1.806505   1.373903   1.373848
78   1.806505   4.121708   1.373848
78   5.419515   1.373903   1.373848
78   5.419515   4.121708   1.373848
78   0.000000   0.000000   2.747696
78   0.000000   2.747806   2.747696
78   3.613010   0.000000   2.747696
78   3.613010   2.747806   2.747696
