CRYSTAL
PRIMVEC
  7.226021   0.000000   0.000000
  0.000000   5.495611   0.000000
  0.000000   0.000000  16.486833
PRIMCOORD
23 1
 8   3.613010   1.714905   5.527211
 6   3.613010   2.747806   4.877794
 1   3.613010   3.742566   5.355913
78   0.000000   0.000000  -2.747696
78   0.000000   2.747806  -2.747696
78   3.613010   0.000000  -2.747696
78   3.613010   2.747806  -2.747696
78   1.806505   1.373903  -1.373848
78   1.806505   4.121708  -1.373848
78   5.419515   1.373903  -1.373848
78   5.419515   4.121708  -1.373848
78   0.000000   0.000000   0.000000
78   0.000000   2.747806   0.000000
78   3.613010   0.000000   0.000000
78   3.613010   2.747806   0.000000
78   1.806505   1.373903   1.373848
78   1.806505   4.121708   1.373848
78   5.419515   1.373903   1.373848
78   5.419515   4.121708   1.373848
78   0.000000   0.000000   2.747696
78   0.000000   2.747806   2.747696
78   3.613010   0.000000   2.747696
78   3.613010   2.747806   2.747696
