CRYSTAL
PRIMVEC
  5.543713   0.000000   0.000000
  0.000000   7.840025   0.000000
  0.000000   0.000000  16.631193
PRIMCOORD
25 1
 1   3.387209   4.829455   5.737761
 1   0.931344   3.394731   5.737761
 6   2.771857   3.920012   5.737761
 8   3.093392   2.751849   5.737761
 8   1.457997   4.194413   5.737761
78   0.000000   0.000000  -2.593496
78   2.771857   3.920012  -2.593496
78   0.000000   3.920012  -2.593496
78   2.771857   0.000000  -2.593496
78   4.157785   1.960006  -1.296748
78   1.385928   5.880019  -1.296748
78   1.385928   1.960006  -1.296748
78   4.157785   5.880019  -1.296748
78   2.771857   0.000000   0.000000
78   0.000000   0.000000   0.000000
78   0.000000   3.920012   0.000000
78   2.771857   3.920012   0.000000
78   4.157785   1.960006   1.296748
78   1.385928   5.880019   1.296748
78   1.385928   1.960006   1.296748
78   4.157785   5.880019   1.296748
78   0.000000   0.000000   2.593496
78   0.000000   3.920012   2.593496
78   2.771857   0.000000   2.593496
78   2.771857   3.920012   2.593496
