CRYSTAL
PRIMVEC
  5.545407   0.000000   0.000000
  0.000000   5.545407   0.000000
  0.000000   0.000000  23.519810
PRIMCOORD
22 1
 8   2.772703   2.772703   7.324069
 6   2.772703   2.772703   5.785873
78   0.000000   0.000000  -3.920752
78   2.772703   2.772703  -3.920752
78   0.000000   2.772703  -3.920752
78   2.772703   0.000000  -3.920752
78   4.159055   1.386352  -1.959200
78   1.386352   4.159055  -1.959200
78   1.386352   1.386352  -1.959200
78   4.159055   4.159055  -1.959200
78   2.772703   0.000000   0.000000
78   0.000000   0.000000   0.000000
78   0.000000   2.772703   0.000000
78   2.772703   2.772703   0.000000
78   4.159055   1.386352   1.959200
78   1.386352   4.159055   1.959200
78   1.386352   1.386352   1.959200
78   4.159055   4.159055   1.959200
78   0.000000   0.000000   3.920752
78   0.000000   2.772703   3.920752
78   2.772703   0.000000   3.920752
78   2.772703   2.772703   3.920752
