CRYSTAL
PRIMVEC
  5.545407   0.000000   0.000000
 -2.772709   4.802474   0.000000
  0.000000   0.000000  22.632168
PRIMCOORD
23 1
 8   0.388176   2.132298   7.038604
 6   1.386349   2.401237   6.382271
 1   2.345704   2.660570   6.857547
78   1.386074   0.800572  -4.528697
78  -0.000281   3.201809  -4.528697
78   4.158777   0.800572  -4.528697
78   2.772423   3.201809  -4.528697
78   0.000000   0.000000  -2.263217
78  -1.386354   2.401237  -2.263217
78   2.772703   0.000000  -2.263217
78   1.386349   2.401237  -2.263217
78   0.000276   1.600664   0.000000
78  -1.386079   4.001901   0.000000
78   2.772979   1.600664   0.000000
78   1.386625   4.001901   0.000000
78   1.386074   0.800572   2.263217
78  -0.000281   3.201809   2.263217
78   4.158777   0.800572   2.263217
78   2.772423   3.201809   2.263217
78   0.000000   0.000000   4.528697
78  -1.386354   2.401237   4.528697
78   2.772703   0.000000   4.528697
78   1.386349   2.401237   4.528697
