CRYSTAL
PRIMVEC
  7.302010   0.000000   0.000000
  0.000000   5.488996   0.000000
  0.000000   0.000000  16.467042
PRIMCOORD
26 1
 8   4.983257   2.633346   5.356893
 8   3.102113   3.963549   5.356893
 6   3.651005   2.744498   4.874409
 1   3.056110   1.903145   5.232732
 1   5.321559   1.783979   5.002687
 1   2.188559   3.999393   5.002687
78   0.000000   0.000000  -2.744397
78   0.000000   2.744498  -2.744397
78   3.651005   0.000000  -2.744397
78   3.651005   2.744498  -2.744397
78   1.825503   1.372249  -1.372199
78   1.825503   4.116747  -1.372199
78   5.476508   1.372249  -1.372199
78   5.476508   4.116747  -1.372199
78   0.000000   0.000000   0.000000
78   0.000000   2.744498   0.000000
78   3.651005   0.000000   0.000000
78   3.651005   2.744498   0.000000
78   1.825503   1.372249   1.372199
78   1.825503   4.116747   1.372199
78   5.476508   1.372249   1.372199
78   5.476508   4.116747   1.372199
78   0.000000   0.000000   2.744397
78   0.000000   2.744498   2.744397
78   3.651005   0.000000   2.744397
78   3.651005   2.744498   2.744397
