CRYSTAL
PRIMVEC
  7.302010   0.000000   0.000000
  0.000000   5.488996   0.000000
  0.000000   0.000000  16.467042
PRIMCOORD
23 1
 8   3.651005   1.711634   5.523869
 6   3.651005   2.744498   4.874409
 1   3.651005   3.739269   5.352777
78   0.000000   0.000000  -2.744397
78   0.000000   2.744498  -2.744397
78   3.651005   0.000000  -2.744397
78   3.651005   2.744498  -2.744397
78   1.825503   1.372249  -1.372199
78   1.825503   4.116747  -1.372199
78   5.476508   1.372249  -1.372199
78   5.476508   4.116747  -1.372199
78   0.000000   0.000000   0.000000
78   0.000000   2.744498   0.000000
78   3.651005   0.000000   0.000000
78   3.651005   2.744498   0.000000
78   1.825503   1.372249   1.372199
78   1.825503   4.116747   1.372199
78   5.476508   1.372249   1.372199
78   5.476508   4.116747   1.372199
78   0.000000   0.000000   2.744397
78   0.000000   2.744498   2.744397
78   3.651005   0.000000   2.744397
78   3.651005   2.744498   2.744397
