CRYSTAL
PRIMVEC
  5.548000   0.000000   0.000000
 -2.773910   4.804749   0.000000
  8.321788  -4.804691  27.179494
PRIMCOORD
26 1
 8   4.106237   1.490448   7.142227
 8   2.225074   2.820643   7.142227
 6   2.773944   1.601629   6.659791
 1   2.179015   0.760222   7.018017
 1   4.444595   0.641064   6.788079
 1   1.311598   2.856486   6.788079
78  -1.386909   0.800750  -4.529734
78  -2.773864   3.203124  -4.529734
78   1.387091   0.800750  -4.529734
78   0.000136   3.203124  -4.529734
78   0.000068   1.601562  -2.264867
78  -1.386887   4.003937  -2.264867
78   2.774068   1.601562  -2.264867
78   1.387113   4.003937  -2.264867
78   0.000000   0.000000   0.000000
78  -1.386955   2.402375   0.000000
78   2.774000   0.000000   0.000000
78   1.387045   2.402375   0.000000
78   1.386977   0.800812   2.264867
78   0.000022   3.203187   2.264867
78   4.160977   0.800812   2.264867
78   2.774022   3.203187   2.264867
78   1.386909  -0.800750   4.529734
78  -0.000046   1.601625   4.529734
78   4.160909  -0.800750   4.529734
78   2.773954   1.601625   4.529734
