CRYSTAL
PRIMVEC
  7.434410   0.000000   0.000000
  0.000000   5.440418   0.000000
  0.000000   0.000000  16.321254
PRIMCOORD
26 1
 8   5.049452   2.609061   5.332480
 8   3.168248   3.939243   5.332643
 6   3.717205   2.720209   4.850187
 1   3.122304   1.878848   5.208438
 1   5.387792   1.759703   4.978309
 1   2.254782   3.975096   4.978309
78   0.000000   0.000000  -2.720100
78   0.000000   2.720209  -2.720100
78   3.717205   0.000000  -2.720100
78   3.717205   2.720209  -2.720100
78   1.858603   1.360104  -1.360050
78   1.858603   4.080313  -1.360050
78   5.575808   1.360104  -1.360050
78   5.575808   4.080313  -1.360050
78   0.000000   0.000000   0.000000
78   0.000000   2.720209   0.000000
78   3.717205   0.000000   0.000000
78   3.717205   2.720209   0.000000
78   1.858603   1.360104   1.360050
78   1.858603   4.080313   1.360050
78   5.575808   1.360104   1.360050
78   5.575808   4.080313   1.360050
78   0.000000   0.000000   2.720100
78   0.000000   2.720209   2.720100
78   3.717205   0.000000   2.720100
78   3.717205   2.720209   2.720100
