CRYSTAL
PRIMVEC
  7.434410   0.000000   0.000000
  0.000000   5.440418   0.000000
  0.000000   0.000000  16.321254
PRIMCOORD
23 1
 8   3.717205   1.687346   5.499610
 6   3.717205   2.720209   4.850187
 1   3.717205   3.714989   5.328400
78   0.000000   0.000000  -2.720100
78   0.000000   2.720209  -2.720100
78   3.717205   0.000000  -2.720100
78   3.717205   2.720209  -2.720100
78   1.858603   1.360104  -1.360050
78   1.858603   4.080313  -1.360050
78   5.575808   1.360104  -1.360050
78   5.575808   4.080313  -1.360050
78   0.000000   0.000000   0.000000
78   0.000000   2.720209   0.000000
78   3.717205   0.000000   0.000000
78   3.717205   2.720209   0.000000
78   1.858603   1.360104   1.360050
78   1.858603   4.080313   1.360050
78   5.575808   1.360104   1.360050
78   5.575808   4.080313   1.360050
78   0.000000   0.000000   2.720100
78   0.000000   2.720209   2.720100
78   3.717205   0.000000   2.720100
78   3.717205   2.720209   2.720100
