CRYSTAL
PRIMVEC
  5.545407   0.000000   0.000000
  0.000000   5.545407   0.000000
  0.000000   0.000000  23.519810
PRIMCOORD
25 1
 1   3.388243   3.682150   9.690162
 1   0.931628   2.245890   9.690162
 6   2.772703   2.772703   9.690162
 8   3.094337   1.602623   9.690162
 8   1.458442   3.044428   9.690162
78   0.000000   0.000000  -3.920752
78   2.772703   2.772703  -3.920752
78   0.000000   2.772703  -3.920752
78   2.772703   0.000000  -3.920752
78   4.159055   1.386352  -1.959200
78   1.386352   4.159055  -1.959200
78   1.386352   1.386352  -1.959200
78   4.159055   4.159055  -1.959200
78   2.772703   0.000000   0.000000
78   0.000000   0.000000   0.000000
78   0.000000   2.772703   0.000000
78   2.772703   2.772703   0.000000
78   4.159055   1.386352   1.959200
78   1.386352   4.159055   1.959200
78   1.386352   1.386352   1.959200
78   4.159055   4.159055   1.959200
78   0.000000   0.000000   3.920752
78   0.000000   2.772703   3.920752
78   2.772703   0.000000   3.920752
78   2.772703   2.772703   3.920752
