CRYSTAL
PRIMVEC
  5.543713   0.000000   0.000000
  0.000000   7.840025   0.000000
  0.000000   0.000000  16.631193
PRIMCOORD
23 1
 8   2.771857   2.885129   5.105776
 6   2.771857   3.920012   4.457160
 1   2.771857   4.915696   4.939464
78   0.000000   0.000000  -2.593496
78   2.771857   3.920012  -2.593496
78   0.000000   3.920012  -2.593496
78   2.771857   0.000000  -2.593496
78   4.157785   1.960006  -1.296748
78   1.385928   5.880019  -1.296748
78   1.385928   1.960006  -1.296748
78   4.157785   5.880019  -1.296748
78   2.771857   0.000000   0.000000
78   0.000000   0.000000   0.000000
78   0.000000   3.920012   0.000000
78   2.771857   3.920012   0.000000
78   4.157785   1.960006   1.296748
78   1.385928   5.880019   1.296748
78   1.385928   1.960006   1.296748
78   4.157785   5.880019   1.296748
78   0.000000   0.000000   2.593496
78   0.000000   3.920012   2.593496
78   2.771857   0.000000   2.593496
78   2.771857   3.920012   2.593496
