CRYSTAL
PRIMVEC
  5.543713   0.000000   0.000000
  0.000000   7.840025   0.000000
  0.000000   0.000000  16.631193
PRIMCOORD
26 1
 8   4.102348   3.810252   4.922833
 8   2.223029   5.135216   4.922833
 6   2.771857   3.920012   4.440528
 1   2.178679   3.081130   4.806415
 1   4.440514   2.955689   4.573578
 1   1.308316   5.174416   4.573578
78   0.000000   0.000000  -2.593496
78   2.771857   3.920012  -2.593496
78   0.000000   3.920012  -2.593496
78   2.771857   0.000000  -2.593496
78   4.157785   1.960006  -1.296748
78   1.385928   5.880019  -1.296748
78   1.385928   1.960006  -1.296748
78   4.157785   5.880019  -1.296748
78   2.771857   0.000000   0.000000
78   0.000000   0.000000   0.000000
78   0.000000   3.920012   0.000000
78   2.771857   3.920012   0.000000
78   4.157785   1.960006   1.296748
78   1.385928   5.880019   1.296748
78   1.385928   1.960006   1.296748
78   4.157785   5.880019   1.296748
78   0.000000   0.000000   2.593496
78   0.000000   3.920012   2.593496
78   2.771857   0.000000   2.593496
78   2.771857   3.920012   2.593496
