CRYSTAL
PRIMVEC
  7.846005   0.000000   0.000000
  0.000000   5.548000   0.000000
  0.000000   0.000002  16.644052
PRIMCOORD
26 1
 8   5.255254   2.662819   5.386348
 8   3.374096   3.993063   5.386348
 6   3.923002   2.774000   4.904003
 1   3.328040   1.932646   5.262183
 1   5.593574   1.813475   5.032163
 1   2.460585   4.028903   5.032163
78   0.000000  -0.000000  -2.773898
78   0.000000   2.773999  -2.773898
78   3.923002  -0.000000  -2.773898
78   3.923002   2.773999  -2.773898
78   1.961501   1.387000  -1.386949
78   1.961501   4.161000  -1.386949
78   5.884503   1.387000  -1.386949
78   5.884503   4.161000  -1.386949
78   0.000000   0.000000   0.000000
78   0.000000   2.774000   0.000000
78   3.923002   0.000000   0.000000
78   3.923002   2.774000   0.000000
78   1.961501   1.387000   1.386949
78   1.961501   4.161000   1.386949
78   5.884503   1.387000   1.386949
78   5.884503   4.161000   1.386949
78   0.000000   0.000000   2.773898
78   0.000000   2.774000   2.773898
78   3.923002   0.000000   2.773898
78   3.923002   2.774000   2.773898
