CRYSTAL
PRIMVEC
  7.846005   0.000000   0.000000
  0.000000   5.548000   0.000000
  0.000000   0.000002  16.644052
PRIMCOORD
22 1
 6   3.923002   2.774000   4.904003
 8   3.923002   2.774001   6.114026
78   0.000000  -0.000000  -2.773898
78   0.000000   2.773999  -2.773898
78   3.923002  -0.000000  -2.773898
78   3.923002   2.773999  -2.773898
78   1.961501   1.387000  -1.386949
78   1.961501   4.161000  -1.386949
78   5.884503   1.387000  -1.386949
78   5.884503   4.161000  -1.386949
78   0.000000   0.000000   0.000000
78   0.000000   2.774000   0.000000
78   3.923002   0.000000   0.000000
78   3.923002   2.774000   0.000000
78   1.961501   1.387000   1.386949
78   1.961501   4.161000   1.386949
78   5.884503   1.387000   1.386949
78   5.884503   4.161000   1.386949
78   0.000000   0.000000   2.773898
78   0.000000   2.774000   2.773898
78   3.923002   0.000000   2.773898
78   3.923002   2.774000   2.773898
