CRYSTAL
PRIMVEC
  7.954010   0.000000   0.000000
  0.000000   5.624201   0.000000
  0.000000   0.000000  16.872656
PRIMCOORD
23 1
 8   3.977005   1.779216   5.591598
 6   3.977005   2.812101   4.942001
 1   3.977005   3.806853   5.420341
78   0.000000   0.000000  -2.811997
78   0.000000   2.812101  -2.811997
78   3.977005   0.000000  -2.811997
78   3.977005   2.812101  -2.811997
78   1.988502   1.406050  -1.405998
78   1.988502   4.218151  -1.405998
78   5.965507   1.406050  -1.405998
78   5.965507   4.218151  -1.405998
78   0.000000   0.000000   0.000000
78   0.000000   2.812101   0.000000
78   3.977005   0.000000   0.000000
78   3.977005   2.812101   0.000000
78   1.988502   1.406050   1.405998
78   1.988502   4.218151   1.405998
78   5.965507   1.406050   1.405998
78   5.965507   4.218151   1.405998
78   0.000000   0.000000   2.811997
78   0.000000   2.812101   2.811997
78   3.977005   0.000000   2.811997
78   3.977005   2.812101   2.811997
