CRYSTAL
PRIMVEC
  7.954010   0.000000   0.000000
  0.000000   5.624201   0.000000
  0.000000   0.000000  16.872656
PRIMCOORD
26 1
 8   5.309301   2.700966   5.424390
 8   3.428099   4.031146   5.424390
 6   3.977005   2.812101   4.942001
 1   3.382045   1.970720   5.300208
 1   5.647585   1.851599   5.070233
 1   2.514581   4.066972   5.070233
78   0.000000   0.000000  -2.811997
78   0.000000   2.812101  -2.811997
78   3.977005   0.000000  -2.811997
78   3.977005   2.812101  -2.811997
78   1.988502   1.406050  -1.405998
78   1.988502   4.218151  -1.405998
78   5.965507   1.406050  -1.405998
78   5.965507   4.218151  -1.405998
78   0.000000   0.000000   0.000000
78   0.000000   2.812101   0.000000
78   3.977005   0.000000   0.000000
78   3.977005   2.812101   0.000000
78   1.988502   1.406050   1.405998
78   1.988502   4.218151   1.405998
78   5.965507   1.406050   1.405998
78   5.965507   4.218151   1.405998
78   0.000000   0.000000   2.811997
78   0.000000   2.812101   2.811997
78   3.977005   0.000000   2.811997
78   3.977005   2.812101   2.811997
