CRYSTAL
PRIMVEC
  5.545407   0.000000   0.000000
  0.000000   5.545407   0.000000
  0.000000   0.000000  23.519810
PRIMCOORD
26 1
 8   4.103601   2.661795   6.256269
 8   2.223708   3.992693   6.256269
 6   2.772703   2.772703   5.762353
 1   2.179345   1.929802   6.115151
 1   4.441871   1.813348   5.903472
 1   1.308716   4.025965   5.903472
78   0.000000   0.000000  -3.920752
78   2.772703   2.772703  -3.920752
78   0.000000   2.772703  -3.920752
78   2.772703   0.000000  -3.920752
78   4.159055   1.386352  -1.959200
78   1.386352   4.159055  -1.959200
78   1.386352   1.386352  -1.959200
78   4.159055   4.159055  -1.959200
78   2.772703   0.000000   0.000000
78   0.000000   0.000000   0.000000
78   0.000000   2.772703   0.000000
78   2.772703   2.772703   0.000000
78   4.159055   1.386352   1.959200
78   1.386352   4.159055   1.959200
78   1.386352   1.386352   1.959200
78   4.159055   4.159055   1.959200
78   0.000000   0.000000   3.920752
78   0.000000   2.772703   3.920752
78   2.772703   0.000000   3.920752
78   2.772703   2.772703   3.920752
