CRYSTAL
PRIMVEC
  5.545407   0.000000   0.000000
  0.000000   5.545407   0.000000
  0.000000   0.000000  19.606015
PRIMCOORD
26 1
 8   4.103601   2.661795   8.273738
 8   2.223708   3.992693   8.273738
 6   2.772703   2.772703   7.783588
 1   2.179345   1.929802   8.156102
 1   4.441871   1.813348   7.920830
 1   1.308716   4.025965   7.920830
78   0.000000   0.000000  -3.921203
78   2.772703   2.772703  -3.921203
78   0.000000   2.772703  -3.921203
78   2.772703   0.000000  -3.921203
78   4.159055   1.386352  -1.960602
78   1.386352   4.159055  -1.960602
78   1.386352   1.386352  -1.960602
78   4.159055   4.159055  -1.960602
78   2.772703   0.000000   0.000000
78   0.000000   0.000000   0.000000
78   0.000000   2.772703   0.000000
78   2.772703   2.772703   0.000000
78   4.159055   1.386352   1.960602
78   1.386352   4.159055   1.960602
78   1.386352   1.386352   1.960602
78   4.159055   4.159055   1.960602
78   0.000000   0.000000   3.921203
78   0.000000   2.772703   3.921203
78   2.772703   0.000000   3.921203
78   2.772703   2.772703   3.921203
